/*--------------------------------*- C++ -*----------------------------------*\
FoamFile
{
    version     2.0;
    format      ascii;
    class       dictionary;
    object      turbulenceProperties;
}

// 난류 모델 설정

simulationType  RAS;

RAS
{
    RASModel        kOmegaSST;
    
    turbulence      on;
    
    printCoeffs     on;
}
